/*--------------------------------*- C++ -*----------------------------------*\
| =========                 |                                                 |
| \      /  F ield         | OpenFOAM: The Open Source CFD Toolbox           |
|  \    /   O peration     | Version:  2.2.1                                 |
|   \  /    A nd           | Web:      www.OpenFOAM.org                      |
|    \/     M anipulation  |                                                 |
\*---------------------------------------------------------------------------*/
FoamFile
{
    version	2.0;
    format	ascii;
    class	dictionary;
    object	waveProperties;
}
// * * * * * * * * * * * * * * * * * * * * * * * * * * * * * * * * * * * * * //

seaLevel            0.00000;

relaxationNames     ( outlet );

initializationName  outlet;

pName               p_rgh;

inletCoeffs
{
    waveType            irregular;
    spectrum            JONSWAP;
    N                   200;
    Tsoft               0.00000;
    writeSpectrum       false;
    Hs                  1.00000;
    Tp                  1.70000;
    gamma               1.00000;
    depth               0.50000;
    direction           (1 0 0);
    amplitude           nonuniform List<scalar>
    200
    (
        0.0009525254
        0.0009522356
        0.0009517527
        0.0009510772
        0.0009502094
        0.0009491498
        0.0009478992
        0.0009464582
        0.0009448278
        0.0009430091
        0.0009410030
        0.0009388110
        0.0009364342
        0.0009338743
        0.0009311327
        0.0009282112
        0.0009251116
        0.0009218357
        0.0009183856
        0.0009147634
        0.0009109711
        0.0009070113
        0.0009028862
        0.0008985983
        0.0008941503
        0.0008895447
        0.0008847843
        0.0008798719
        0.0008748105
        0.0008696030
        0.0008642524
        0.0008587620
        0.0008531347
        0.0008473740
        0.0008414832
        0.0008354655
        0.0008293244
        0.0008230634
        0.0008166860
        0.0008101958
        0.0008035964
        0.0007968913
        0.0007900843
        0.0007831791
        0.0007761794
        0.0007690889
        0.0007619115
        0.0007546510
        0.0007473110
        0.0007398955
        0.0007324083
        0.0007248531
        0.0007172339
        0.0007095544
        0.0007018185
        0.0006940299
        0.0006861925
        0.0006783101
        0.0006703864
        0.0006624251
        0.0006544300
        0.0006464048
        0.0006383531
        0.0006302785
        0.0006221847
        0.0006140752
        0.0006059536
        0.0005978232
        0.0005896876
        0.0005815502
        0.0005734142
        0.0005652830
        0.0005571597
        0.0005490477
        0.0005409499
        0.0005328695
        0.0005248095
        0.0005167727
        0.0005087622
        0.0005007807
        0.0004928310
        0.0004849157
        0.0004770375
        0.0004691990
        0.0004614025
        0.0004536506
        0.0004459455
        0.0004382895
        0.0004306849
        0.0004231338
        0.0004156381
        0.0004081999
        0.0004008211
        0.0003935035
        0.0003862489
        0.0003790589
        0.0003719352
        0.0003648792
        0.0003578925
        0.0003509765
        0.0003441324
        0.0003373616
        0.0003306651
        0.0003240441
        0.0003174995
        0.0003110325
        0.0003046438
        0.0002983343
        0.0002921048
        0.0002859558
        0.0002798882
        0.0002739023
        0.0002679988
        0.0002621780
        0.0002564403
        0.0002507861
        0.0002452156
        0.0002397290
        0.0002343263
        0.0002290079
        0.0002237735
        0.0002186233
        0.0002135572
        0.0002085750
        0.0002036766
        0.0001988617
        0.0001941302
        0.0001894816
        0.0001849157
        0.0001804320
        0.0001760302
        0.0001717098
        0.0001674702
        0.0001633109
        0.0001592314
        0.0001552311
        0.0001513093
        0.0001474653
        0.0001436985
        0.0001400082
        0.0001363935
        0.0001328538
        0.0001293882
        0.0001259960
        0.0001226762
        0.0001194281
        0.0001162508
        0.0001131433
        0.0001101049
        0.0001071345
        0.0001042313
        0.0001013943
        0.0000986226
        0.0000959152
        0.0000932711
        0.0000906894
        0.0000881691
        0.0000857092
        0.0000833087
        0.0000809667
        0.0000786821
        0.0000764539
        0.0000742812
        0.0000721630
        0.0000700982
        0.0000680859
        0.0000661251
        0.0000642148
        0.0000623541
        0.0000605419
        0.0000587772
        0.0000570592
        0.0000553869
        0.0000537592
        0.0000521753
        0.0000506343
        0.0000491351
        0.0000476770
        0.0000462589
        0.0000448800
        0.0000435394
        0.0000422363
        0.0000409696
        0.0000397387
        0.0000385427
        0.0000373806
        0.0000362518
        0.0000351553
        0.0000340905
        0.0000330564
        0.0000320524
        0.0000310777
        0.0000301316
        0.0000292132
        0.0000283219
        0.0000274570
        0.0000266178
        0.0000258036
        0.0000250137
        0.0000242475
    );
    frequency           nonuniform List<scalar>
    200
    (
        0.00390637
        0.00781274
        0.01171911
        0.01562548
        0.01953185
        0.02343822
        0.02734458
        0.03125095
        0.03515732
        0.03906369
        0.04297006
        0.04687643
        0.05078280
        0.05468917
        0.05859554
        0.06250191
        0.06640828
        0.07031465
        0.07422102
        0.07812738
        0.08203375
        0.08594012
        0.08984649
        0.09375286
        0.09765923
        0.10156560
        0.10547197
        0.10937834
        0.11328471
        0.11719108
        0.12109745
        0.12500381
        0.12891018
        0.13281655
        0.13672292
        0.14062929
        0.14453566
        0.14844203
        0.15234840
        0.15625477
        0.16016114
        0.16406751
        0.16797388
        0.17188025
        0.17578661
        0.17969298
        0.18359935
        0.18750572
        0.19141209
        0.19531846
        0.19922483
        0.20313120
        0.20703757
        0.21094394
        0.21485031
        0.21875668
        0.22266305
        0.22656941
        0.23047578
        0.23438215
        0.23828852
        0.24219489
        0.24610126
        0.25000763
        0.25391400
        0.25782037
        0.26172674
        0.26563311
        0.26953948
        0.27344584
        0.27735221
        0.28125858
        0.28516495
        0.28907132
        0.29297769
        0.29688406
        0.30079043
        0.30469680
        0.30860317
        0.31250954
        0.31641591
        0.32032228
        0.32422864
        0.32813501
        0.33204138
        0.33594775
        0.33985412
        0.34376049
        0.34766686
        0.35157323
        0.35547960
        0.35938597
        0.36329234
        0.36719871
        0.37110508
        0.37501144
        0.37891781
        0.38282418
        0.38673055
        0.39063692
        0.39454329
        0.39844966
        0.40235603
        0.40626240
        0.41016877
        0.41407514
        0.41798151
        0.42188787
        0.42579424
        0.42970061
        0.43360698
        0.43751335
        0.44141972
        0.44532609
        0.44923246
        0.45313883
        0.45704520
        0.46095157
        0.46485794
        0.46876431
        0.47267067
        0.47657704
        0.48048341
        0.48438978
        0.48829615
        0.49220252
        0.49610889
        0.50001526
        0.50392163
        0.50782800
        0.51173437
        0.51564074
        0.51954711
        0.52345347
        0.52735984
        0.53126621
        0.53517258
        0.53907895
        0.54298532
        0.54689169
        0.55079806
        0.55470443
        0.55861080
        0.56251717
        0.56642354
        0.57032991
        0.57423627
        0.57814264
        0.58204901
        0.58595538
        0.58986175
        0.59376812
        0.59767449
        0.60158086
        0.60548723
        0.60939360
        0.61329997
        0.61720634
        0.62111270
        0.62501907
        0.62892544
        0.63283181
        0.63673818
        0.64064455
        0.64455092
        0.64845729
        0.65236366
        0.65627003
        0.66017640
        0.66408277
        0.66798914
        0.67189550
        0.67580187
        0.67970824
        0.68361461
        0.68752098
        0.69142735
        0.69533372
        0.69924009
        0.70314646
        0.70705283
        0.71095920
        0.71486557
        0.71877194
        0.72267830
        0.72658467
        0.73049104
        0.73439741
        0.73830378
        0.74221015
        0.74611652
        0.75002289
        0.75392926
        0.75783563
        0.76174200
        0.76564837
        0.76955473
        0.77346110
        0.77736747
        0.78127384
    );
    phaselag           nonuniform List<scalar>
    200
    (
        -3.14159265
        0.00000000
        3.14159265
        0.00000000
        3.14159265
        -0.00000000
        -3.14159265
        0.00000000
        3.14159265
        -0.00000000
        3.14159265
        0.00000000
        -3.14159265
        0.00000000
        -3.14159265
        0.00000000
        3.14159265
        -0.00000000
        3.14159265
        -0.00000000
        3.14159265
        -0.00000000
        3.14159265
        0.00000000
        -3.14159265
        0.00000000
        -3.14159265
        0.00000000
        -3.14159265
        -0.00000000
        -3.14159265
        -0.00000000
        3.14159265
        -0.00000000
        3.14159265
        -0.00000000
        3.14159265
        -0.00000000
        -3.14159265
        -0.00000000
        3.14159265
        -0.00000000
        -3.14159265
        0.00000000
        -3.14159265
        0.00000000
        -3.14159265
        0.00000000
        3.14159265
        -0.00000000
        -3.14159265
        -0.00000000
        -3.14159265
        0.00000000
        -3.14159265
        0.00000000
        -3.14159265
        0.00000000
        -3.14159265
        0.00000000
        -3.14159265
        0.00000000
        3.14159265
        0.00000000
        3.14159265
        -0.00000000
        3.14159265
        0.00000000
        3.14159265
        0.00000000
        3.14159265
        -0.00000000
        3.14159265
        -0.00000000
        3.14159265
        -0.00000000
        3.14159265
        -0.00000000
        3.14159265
        -0.00000000
        3.14159265
        0.00000000
        3.14159265
        -0.00000000
        3.14159265
        -0.00000000
        3.14159265
        -0.00000000
        3.14159265
        -0.00000000
        3.14159265
        -0.00000000
        3.14159265
        -0.00000000
        3.14159265
        -0.00000000
        3.14159265
        -0.00000000
        -3.14159265
        -0.00000000
        -3.14159265
        -0.00000000
        3.14159265
        -0.00000000
        3.14159265
        -0.00000000
        -3.14159265
        -0.00000000
        3.14159265
        0.00000000
        -3.14159265
        -0.00000000
        -3.14159265
        0.00000000
        -3.14159265
        0.00000000
        -3.14159265
        0.00000000
        -3.14159265
        -0.00000000
        -3.14159265
        -0.00000000
        3.14159265
        -0.00000000
        3.14159265
        -0.00000000
        3.14159265
        0.00000000
        -3.14159265
        0.00000000
        -3.14159265
        -0.00000000
        -3.14159265
        0.00000000
        -3.14159265
        -0.00000000
        3.14159265
        -0.00000000
        3.14159265
        0.00000000
        3.14159265
        0.00000000
        3.14159265
        -0.00000000
        3.14159265
        0.00000000
        3.14159265
        -0.00000000
        3.14159265
        0.00000000
        3.14159265
        -0.00000000
        3.14159265
        -0.00000000
        3.14159265
        -0.00000000
        3.14159265
        -0.00000000
        3.14159265
        -0.00000000
        3.14159265
        -0.00000000
        -3.14159265
        -0.00000000
        3.14159265
        -0.00000000
        3.14159265
        -0.00000000
        3.14159265
        -0.00000000
        3.14159265
        -0.00000000
        -3.14159265
        0.00000000
        -3.14159265
        0.00000000
        -3.14159265
        0.00000000
        -3.14159265
        0.00000000
        -3.14159265
        0.00000000
        -3.14159265
        0.00000000
        -3.14159265
        0.00000000
        -3.14159265
        0.00000000
        -3.14159265
        0.00000000
        -3.14159265
        0.00000000
        -3.14159265
        0.00000000
        -3.14159265
        0.00000000
        -3.14159265
        0.00000000
        -3.14159265
        0.00000000
    );
    waveNumber           nonuniform List<vector>
    200
    (
        (0.01108245 0.00000000 0)
        (0.02216525 0.00000000 0)
        (0.03324872 0.00000000 0)
        (0.04433321 0.00000000 0)
        (0.05541907 0.00000000 0)
        (0.06650663 0.00000000 0)
        (0.07759623 0.00000000 0)
        (0.08868821 0.00000000 0)
        (0.09978292 0.00000000 0)
        (0.11088070 0.00000000 0)
        (0.12198189 0.00000000 0)
        (0.13308683 0.00000000 0)
        (0.14419586 0.00000000 0)
        (0.15530933 0.00000000 0)
        (0.16642759 0.00000000 0)
        (0.17755097 0.00000000 0)
        (0.18867982 0.00000000 0)
        (0.19981448 0.00000000 0)
        (0.21095531 0.00000000 0)
        (0.22210265 0.00000000 0)
        (0.23325684 0.00000000 0)
        (0.24441824 0.00000000 0)
        (0.25558720 0.00000000 0)
        (0.26676406 0.00000000 0)
        (0.27794917 0.00000000 0)
        (0.28914289 0.00000000 0)
        (0.30034558 0.00000000 0)
        (0.31155757 0.00000000 0)
        (0.32277924 0.00000000 0)
        (0.33401093 0.00000000 0)
        (0.34525300 0.00000000 0)
        (0.35650581 0.00000000 0)
        (0.36776973 0.00000000 0)
        (0.37904510 0.00000000 0)
        (0.39033229 0.00000000 0)
        (0.40163168 0.00000000 0)
        (0.41294361 0.00000000 0)
        (0.42426846 0.00000000 0)
        (0.43560660 0.00000000 0)
        (0.44695839 0.00000000 0)
        (0.45832420 0.00000000 0)
        (0.46970441 0.00000000 0)
        (0.48109939 0.00000000 0)
        (0.49250952 0.00000000 0)
        (0.50393517 0.00000000 0)
        (0.51537673 0.00000000 0)
        (0.52683457 0.00000000 0)
        (0.53830907 0.00000000 0)
        (0.54980063 0.00000000 0)
        (0.56130963 0.00000000 0)
        (0.57283645 0.00000000 0)
        (0.58438149 0.00000000 0)
        (0.59594514 0.00000000 0)
        (0.60752779 0.00000000 0)
        (0.61912984 0.00000000 0)
        (0.63075170 0.00000000 0)
        (0.64239375 0.00000000 0)
        (0.65405641 0.00000000 0)
        (0.66574009 0.00000000 0)
        (0.67744518 0.00000000 0)
        (0.68917210 0.00000000 0)
        (0.70092127 0.00000000 0)
        (0.71269310 0.00000000 0)
        (0.72448800 0.00000000 0)
        (0.73630641 0.00000000 0)
        (0.74814874 0.00000000 0)
        (0.76001541 0.00000000 0)
        (0.77190687 0.00000000 0)
        (0.78382354 0.00000000 0)
        (0.79576585 0.00000000 0)
        (0.80773425 0.00000000 0)
        (0.81972917 0.00000000 0)
        (0.83175105 0.00000000 0)
        (0.84380035 0.00000000 0)
        (0.85587752 0.00000000 0)
        (0.86798301 0.00000000 0)
        (0.88011727 0.00000000 0)
        (0.89228076 0.00000000 0)
        (0.90447395 0.00000000 0)
        (0.91669730 0.00000000 0)
        (0.92895128 0.00000000 0)
        (0.94123637 0.00000000 0)
        (0.95355304 0.00000000 0)
        (0.96590178 0.00000000 0)
        (0.97828306 0.00000000 0)
        (0.99069737 0.00000000 0)
        (1.00314521 0.00000000 0)
        (1.01562707 0.00000000 0)
        (1.02814345 0.00000000 0)
        (1.04069485 0.00000000 0)
        (1.05328177 0.00000000 0)
        (1.06590474 0.00000000 0)
        (1.07856426 0.00000000 0)
        (1.09126085 0.00000000 0)
        (1.10399504 0.00000000 0)
        (1.11676734 0.00000000 0)
        (1.12957830 0.00000000 0)
        (1.14242845 0.00000000 0)
        (1.15531833 0.00000000 0)
        (1.16824848 0.00000000 0)
        (1.18121946 0.00000000 0)
        (1.19423181 0.00000000 0)
        (1.20728609 0.00000000 0)
        (1.22038286 0.00000000 0)
        (1.23352270 0.00000000 0)
        (1.24670618 0.00000000 0)
        (1.25993386 0.00000000 0)
        (1.27320634 0.00000000 0)
        (1.28652419 0.00000000 0)
        (1.29988801 0.00000000 0)
        (1.31329840 0.00000000 0)
        (1.32675596 0.00000000 0)
        (1.34026128 0.00000000 0)
        (1.35381499 0.00000000 0)
        (1.36741770 0.00000000 0)
        (1.38107004 0.00000000 0)
        (1.39477262 0.00000000 0)
        (1.40852608 0.00000000 0)
        (1.42233105 0.00000000 0)
        (1.43618819 0.00000000 0)
        (1.45009813 0.00000000 0)
        (1.46406154 0.00000000 0)
        (1.47807907 0.00000000 0)
        (1.49215138 0.00000000 0)
        (1.50627914 0.00000000 0)
        (1.52046304 0.00000000 0)
        (1.53470375 0.00000000 0)
        (1.54900195 0.00000000 0)
        (1.56335835 0.00000000 0)
        (1.57777363 0.00000000 0)
        (1.59224851 0.00000000 0)
        (1.60678369 0.00000000 0)
        (1.62137989 0.00000000 0)
        (1.63603783 0.00000000 0)
        (1.65075824 0.00000000 0)
        (1.66554185 0.00000000 0)
        (1.68038939 0.00000000 0)
        (1.69530162 0.00000000 0)
        (1.71027928 0.00000000 0)
        (1.72532314 0.00000000 0)
        (1.74043394 0.00000000 0)
        (1.75561247 0.00000000 0)
        (1.77085949 0.00000000 0)
        (1.78617580 0.00000000 0)
        (1.80156216 0.00000000 0)
        (1.81701938 0.00000000 0)
        (1.83254824 0.00000000 0)
        (1.84814957 0.00000000 0)
        (1.86382416 0.00000000 0)
        (1.87957283 0.00000000 0)
        (1.89539641 0.00000000 0)
        (1.91129571 0.00000000 0)
        (1.92727158 0.00000000 0)
        (1.94332485 0.00000000 0)
        (1.95945636 0.00000000 0)
        (1.97566697 0.00000000 0)
        (1.99195753 0.00000000 0)
        (2.00832890 0.00000000 0)
        (2.02478195 0.00000000 0)
        (2.04131754 0.00000000 0)
        (2.05793657 0.00000000 0)
        (2.07463990 0.00000000 0)
        (2.09142843 0.00000000 0)
        (2.10830305 0.00000000 0)
        (2.12526465 0.00000000 0)
        (2.14231414 0.00000000 0)
        (2.15945243 0.00000000 0)
        (2.17668043 0.00000000 0)
        (2.19399906 0.00000000 0)
        (2.21140922 0.00000000 0)
        (2.22891186 0.00000000 0)
        (2.24650791 0.00000000 0)
        (2.26419828 0.00000000 0)
        (2.28198393 0.00000000 0)
        (2.29986579 0.00000000 0)
        (2.31784480 0.00000000 0)
        (2.33592193 0.00000000 0)
        (2.35409810 0.00000000 0)
        (2.37237430 0.00000000 0)
        (2.39075146 0.00000000 0)
        (2.40923054 0.00000000 0)
        (2.42781252 0.00000000 0)
        (2.44649836 0.00000000 0)
        (2.46528901 0.00000000 0)
        (2.48418546 0.00000000 0)
        (2.50318867 0.00000000 0)
        (2.52229961 0.00000000 0)
        (2.54151926 0.00000000 0)
        (2.56084858 0.00000000 0)
        (2.58028855 0.00000000 0)
        (2.59984015 0.00000000 0)
        (2.61950435 0.00000000 0)
        (2.63928212 0.00000000 0)
        (2.65917443 0.00000000 0)
        (2.67918226 0.00000000 0)
        (2.69930658 0.00000000 0)
        (2.71954836 0.00000000 0)
        (2.73990856 0.00000000 0)
        (2.76038815 0.00000000 0)
        (2.78098809 0.00000000 0)
    );

    frequencyAxis
    {
        discretisation      equidistantFrequencyAxis;
        lowerFrequencyCutoff 0.00390637;
        upperFrequencyCutoff 0.78127384;
        writeSpectrum       false;
    }
}

outletCoeffs
{
    waveType            potentialCurrent;
    U                   ( 0 0 0 );
    Tsoft               0;

    relaxationZone
    {
        relaxationScheme    Spatial;
        relaxationShape     Rectangular;
        beachType           Empty;
        relaxType           OUTLET;
        startX              ( 20.65 -999 999 );
        endX                ( 22.65 999 999 );
        orientation         ( 1 0 0 );
    }
}
