/*--------------------------------*- C++ -*----------------------------------*\
| =========                 |                                                 |
| \\      /  F ield         | foam-extend: Open Source CFD                    |
|  \\    /   O peration     | Version:     3.1                                |
|   \\  /    A nd           | Web:         http://www.extend-project.de       |
|    \\/     M anipulation  |                                                 |
\*---------------------------------------------------------------------------*/
FoamFile
{
    version     2.0;
    format      ascii;
    class       dictionary;
    location    "system";
    object      refineMeshDict;
}
// * * * * * * * * * * * * * * * * * * * * * * * * * * * * * * * * * * * * * //

set             refineBox;

coordinateSystem global;

globalCoeffs
{
    tan1            ( 1 0 0 );
    tan2            ( 0 0 1 );
}

directions      (tan1 tan2);

useHexTopology  yes;

geometricCut    no;

writeMesh       no;

// ************************************************************************* //
