/*--------------------------------*- C++ -*----------------------------------*\
| =========                 |                                                 |
| \      /  F ield         | OpenFOAM: The Open Source CFD Toolbox           |
|  \    /   O peration     | Version:  2.2.1                                 |
|   \  /    A nd           | Web:      www.OpenFOAM.org                      |
|    \/     M anipulation  |                                                 |
\*---------------------------------------------------------------------------*/
FoamFile
{
    version	2.0;
    format	ascii;
    class	dictionary;
    object	waveProperties;
}
// * * * * * * * * * * * * * * * * * * * * * * * * * * * * * * * * * * * * * //

seaLevel            0.00000;

relaxationNames     ( outlet );

initializationName  outlet;

pName               p_rgh;

inletCoeffs
{
    waveType            irregular;
    spectrum            JONSWAP;
    N                   200;
    Tsoft               0.00000;
    writeSpectrum       false;
    Hs                  1.00000;
    Tp                  1.70000;
    gamma               1.00000;
    depth               0.55000;
    direction           (1 0 0);
    amplitude           nonuniform List<scalar>
    200
    (
        0.0009773487
        0.0009772886
        0.0009771884
        0.0009770482
        0.0009768680
        0.0009766477
        0.0009763875
        0.0009760874
        0.0009757473
        0.0009753674
        0.0009749476
        0.0009744882
        0.0009739890
        0.0009734502
        0.0009728718
        0.0009722539
        0.0009715967
        0.0009709001
        0.0009701643
        0.0009693893
        0.0009685754
        0.0009677225
        0.0009668307
        0.0009659003
        0.0009649313
        0.0009639238
        0.0009628780
        0.0009617940
        0.0009606720
        0.0009595120
        0.0009583143
        0.0009570790
        0.0009558062
        0.0009544961
        0.0009531490
        0.0009517649
        0.0009503440
        0.0009488865
        0.0009473926
        0.0009458625
        0.0009442964
        0.0009426945
        0.0009410569
        0.0009393840
        0.0009376758
        0.0009359327
        0.0009341548
        0.0009323424
        0.0009304956
        0.0009286148
        0.0009267002
        0.0009247519
        0.0009227703
        0.0009207556
        0.0009187080
        0.0009166278
        0.0009145152
        0.0009123706
        0.0009101941
        0.0009079861
        0.0009057468
        0.0009034765
        0.0009011754
        0.0008988439
        0.0008964823
        0.0008940908
        0.0008916697
        0.0008892193
        0.0008867399
        0.0008842318
        0.0008816953
        0.0008791307
        0.0008765384
        0.0008739186
        0.0008712716
        0.0008685978
        0.0008658975
        0.0008631709
        0.0008604185
        0.0008576405
        0.0008548373
        0.0008520092
        0.0008491565
        0.0008462796
        0.0008433788
        0.0008404544
        0.0008375067
        0.0008345362
        0.0008315432
        0.0008285279
        0.0008254907
        0.0008224321
        0.0008193523
        0.0008162516
        0.0008131305
        0.0008099892
        0.0008068282
        0.0008036478
        0.0008004483
        0.0007972301
        0.0007939936
        0.0007907390
        0.0007874668
        0.0007841773
        0.0007808709
        0.0007775479
        0.0007742087
        0.0007708537
        0.0007674832
        0.0007640975
        0.0007606971
        0.0007572823
        0.0007538534
        0.0007504108
        0.0007469549
        0.0007434860
        0.0007400045
        0.0007365107
        0.0007330050
        0.0007294879
        0.0007259595
        0.0007224203
        0.0007188706
        0.0007153109
        0.0007117413
        0.0007081624
        0.0007045744
        0.0007009778
        0.0006973728
        0.0006937598
        0.0006901391
        0.0006865112
        0.0006828763
        0.0006792348
        0.0006755871
        0.0006719335
        0.0006682742
        0.0006646098
        0.0006609405
        0.0006572666
        0.0006535885
        0.0006499066
        0.0006462211
        0.0006425324
        0.0006388408
        0.0006351466
        0.0006314502
        0.0006277519
        0.0006240520
        0.0006203509
        0.0006166488
        0.0006129461
        0.0006092430
        0.0006055400
        0.0006018372
        0.0005981351
        0.0005944339
        0.0005907339
        0.0005870354
        0.0005833388
        0.0005796442
        0.0005759521
        0.0005722626
        0.0005685762
        0.0005648930
        0.0005612133
        0.0005575375
        0.0005538659
        0.0005501985
        0.0005465359
        0.0005428782
        0.0005392256
        0.0005355786
        0.0005319372
        0.0005283018
        0.0005246727
        0.0005210501
        0.0005174341
        0.0005138252
        0.0005102235
        0.0005066293
        0.0005030427
        0.0004994641
        0.0004958937
        0.0004923317
        0.0004887783
        0.0004852338
        0.0004816983
        0.0004781721
        0.0004746555
        0.0004711485
        0.0004676515
        0.0004641646
        0.0004606880
        0.0004572219
        0.0004537666
        0.0004503222
        0.0004468889
        0.0004434668
        0.0004400563
    );
    frequency           nonuniform List<scalar>
    200
    (
        0.00390637
        0.00781274
        0.01171911
        0.01562548
        0.01953185
        0.02343822
        0.02734458
        0.03125095
        0.03515732
        0.03906369
        0.04297006
        0.04687643
        0.05078280
        0.05468917
        0.05859554
        0.06250191
        0.06640828
        0.07031465
        0.07422102
        0.07812738
        0.08203375
        0.08594012
        0.08984649
        0.09375286
        0.09765923
        0.10156560
        0.10547197
        0.10937834
        0.11328471
        0.11719108
        0.12109745
        0.12500381
        0.12891018
        0.13281655
        0.13672292
        0.14062929
        0.14453566
        0.14844203
        0.15234840
        0.15625477
        0.16016114
        0.16406751
        0.16797388
        0.17188025
        0.17578661
        0.17969298
        0.18359935
        0.18750572
        0.19141209
        0.19531846
        0.19922483
        0.20313120
        0.20703757
        0.21094394
        0.21485031
        0.21875668
        0.22266305
        0.22656941
        0.23047578
        0.23438215
        0.23828852
        0.24219489
        0.24610126
        0.25000763
        0.25391400
        0.25782037
        0.26172674
        0.26563311
        0.26953948
        0.27344584
        0.27735221
        0.28125858
        0.28516495
        0.28907132
        0.29297769
        0.29688406
        0.30079043
        0.30469680
        0.30860317
        0.31250954
        0.31641591
        0.32032228
        0.32422864
        0.32813501
        0.33204138
        0.33594775
        0.33985412
        0.34376049
        0.34766686
        0.35157323
        0.35547960
        0.35938597
        0.36329234
        0.36719871
        0.37110508
        0.37501144
        0.37891781
        0.38282418
        0.38673055
        0.39063692
        0.39454329
        0.39844966
        0.40235603
        0.40626240
        0.41016877
        0.41407514
        0.41798151
        0.42188787
        0.42579424
        0.42970061
        0.43360698
        0.43751335
        0.44141972
        0.44532609
        0.44923246
        0.45313883
        0.45704520
        0.46095157
        0.46485794
        0.46876431
        0.47267067
        0.47657704
        0.48048341
        0.48438978
        0.48829615
        0.49220252
        0.49610889
        0.50001526
        0.50392163
        0.50782800
        0.51173437
        0.51564074
        0.51954711
        0.52345347
        0.52735984
        0.53126621
        0.53517258
        0.53907895
        0.54298532
        0.54689169
        0.55079806
        0.55470443
        0.55861080
        0.56251717
        0.56642354
        0.57032991
        0.57423627
        0.57814264
        0.58204901
        0.58595538
        0.58986175
        0.59376812
        0.59767449
        0.60158086
        0.60548723
        0.60939360
        0.61329997
        0.61720634
        0.62111270
        0.62501907
        0.62892544
        0.63283181
        0.63673818
        0.64064455
        0.64455092
        0.64845729
        0.65236366
        0.65627003
        0.66017640
        0.66408277
        0.66798914
        0.67189550
        0.67580187
        0.67970824
        0.68361461
        0.68752098
        0.69142735
        0.69533372
        0.69924009
        0.70314646
        0.70705283
        0.71095920
        0.71486557
        0.71877194
        0.72267830
        0.72658467
        0.73049104
        0.73439741
        0.73830378
        0.74221015
        0.74611652
        0.75002289
        0.75392926
        0.75783563
        0.76174200
        0.76564837
        0.76955473
        0.77346110
        0.77736747
        0.78127384
    );
    phaselag           nonuniform List<scalar>
    200
    (
        -3.14159265
        0.00000000
        3.14159265
        0.00000000
        3.14159265
        -0.00000000
        -3.14159265
        0.00000000
        3.14159265
        -0.00000000
        3.14159265
        0.00000000
        -3.14159265
        0.00000000
        -3.14159265
        0.00000000
        3.14159265
        -0.00000000
        3.14159265
        -0.00000000
        3.14159265
        -0.00000000
        3.14159265
        0.00000000
        -3.14159265
        0.00000000
        -3.14159265
        0.00000000
        -3.14159265
        -0.00000000
        -3.14159265
        -0.00000000
        3.14159265
        -0.00000000
        3.14159265
        -0.00000000
        3.14159265
        -0.00000000
        -3.14159265
        0.00000000
        -3.14159265
        -0.00000000
        -3.14159265
        -0.00000000
        -3.14159265
        0.00000000
        -3.14159265
        0.00000000
        3.14159265
        -0.00000000
        -3.14159265
        -0.00000000
        -3.14159265
        0.00000000
        -3.14159265
        0.00000000
        -3.14159265
        0.00000000
        -3.14159265
        -0.00000000
        -3.14159265
        0.00000000
        3.14159265
        0.00000000
        3.14159265
        0.00000000
        3.14159265
        0.00000000
        3.14159265
        0.00000000
        3.14159265
        -0.00000000
        3.14159265
        0.00000000
        3.14159265
        -0.00000000
        3.14159265
        -0.00000000
        3.14159265
        -0.00000000
        3.14159265
        0.00000000
        3.14159265
        -0.00000000
        3.14159265
        -0.00000000
        3.14159265
        0.00000000
        3.14159265
        -0.00000000
        3.14159265
        -0.00000000
        3.14159265
        -0.00000000
        3.14159265
        -0.00000000
        3.14159265
        -0.00000000
        -3.14159265
        -0.00000000
        -3.14159265
        0.00000000
        3.14159265
        -0.00000000
        3.14159265
        0.00000000
        -3.14159265
        -0.00000000
        -3.14159265
        0.00000000
        -3.14159265
        -0.00000000
        -3.14159265
        0.00000000
        -3.14159265
        0.00000000
        -3.14159265
        0.00000000
        -3.14159265
        -0.00000000
        -3.14159265
        -0.00000000
        -3.14159265
        -0.00000000
        3.14159265
        -0.00000000
        3.14159265
        0.00000000
        -3.14159265
        0.00000000
        -3.14159265
        0.00000000
        -3.14159265
        0.00000000
        -3.14159265
        -0.00000000
        3.14159265
        -0.00000000
        -3.14159265
        0.00000000
        -3.14159265
        0.00000000
        -3.14159265
        0.00000000
        -3.14159265
        0.00000000
        3.14159265
        0.00000000
        -3.14159265
        0.00000000
        -3.14159265
        0.00000000
        -3.14159265
        0.00000000
        -3.14159265
        0.00000000
        -3.14159265
        0.00000000
        -3.14159265
        0.00000000
        -3.14159265
        -0.00000000
        -3.14159265
        0.00000000
        -3.14159265
        0.00000000
        -3.14159265
        0.00000000
        -3.14159265
        0.00000000
        3.14159265
        -0.00000000
        3.14159265
        -0.00000000
        -3.14159265
        0.00000000
        -3.14159265
        0.00000000
        -3.14159265
        0.00000000
        3.14159265
        0.00000000
        -3.14159265
        -0.00000000
        -3.14159265
        0.00000000
        3.14159265
        0.00000000
        -3.14159265
        0.00000000
        -3.14159265
        0.00000000
        -3.14159265
        0.00000000
        -3.14159265
        0.00000000
        -3.14159265
        0.00000000
        -3.14159265
        0.00000000
    );
    waveNumber           nonuniform List<vector>
    200
    (
        (0.01056671 0.00000000 0)
        (0.02113378 0.00000000 0)
        (0.03170156 0.00000000 0)
        (0.04227041 0.00000000 0)
        (0.05284068 0.00000000 0)
        (0.06341275 0.00000000 0)
        (0.07398696 0.00000000 0)
        (0.08456366 0.00000000 0)
        (0.09514323 0.00000000 0)
        (0.10572602 0.00000000 0)
        (0.11631238 0.00000000 0)
        (0.12690267 0.00000000 0)
        (0.13749726 0.00000000 0)
        (0.14809651 0.00000000 0)
        (0.15870078 0.00000000 0)
        (0.16931042 0.00000000 0)
        (0.17992580 0.00000000 0)
        (0.19054729 0.00000000 0)
        (0.20117524 0.00000000 0)
        (0.21181003 0.00000000 0)
        (0.22245201 0.00000000 0)
        (0.23310156 0.00000000 0)
        (0.24375904 0.00000000 0)
        (0.25442481 0.00000000 0)
        (0.26509925 0.00000000 0)
        (0.27578274 0.00000000 0)
        (0.28647563 0.00000000 0)
        (0.29717830 0.00000000 0)
        (0.30789113 0.00000000 0)
        (0.31861449 0.00000000 0)
        (0.32934875 0.00000000 0)
        (0.34009430 0.00000000 0)
        (0.35085152 0.00000000 0)
        (0.36162078 0.00000000 0)
        (0.37240246 0.00000000 0)
        (0.38319696 0.00000000 0)
        (0.39400465 0.00000000 0)
        (0.40482593 0.00000000 0)
        (0.41566117 0.00000000 0)
        (0.42651078 0.00000000 0)
        (0.43737514 0.00000000 0)
        (0.44825464 0.00000000 0)
        (0.45914969 0.00000000 0)
        (0.47006068 0.00000000 0)
        (0.48098801 0.00000000 0)
        (0.49193208 0.00000000 0)
        (0.50289330 0.00000000 0)
        (0.51387207 0.00000000 0)
        (0.52486880 0.00000000 0)
        (0.53588390 0.00000000 0)
        (0.54691779 0.00000000 0)
        (0.55797087 0.00000000 0)
        (0.56904356 0.00000000 0)
        (0.58013630 0.00000000 0)
        (0.59124949 0.00000000 0)
        (0.60238356 0.00000000 0)
        (0.61353895 0.00000000 0)
        (0.62471608 0.00000000 0)
        (0.63591538 0.00000000 0)
        (0.64713729 0.00000000 0)
        (0.65838224 0.00000000 0)
        (0.66965069 0.00000000 0)
        (0.68094308 0.00000000 0)
        (0.69225984 0.00000000 0)
        (0.70360144 0.00000000 0)
        (0.71496832 0.00000000 0)
        (0.72636094 0.00000000 0)
        (0.73777977 0.00000000 0)
        (0.74922526 0.00000000 0)
        (0.76069788 0.00000000 0)
        (0.77219810 0.00000000 0)
        (0.78372640 0.00000000 0)
        (0.79528326 0.00000000 0)
        (0.80686914 0.00000000 0)
        (0.81848454 0.00000000 0)
        (0.83012995 0.00000000 0)
        (0.84180585 0.00000000 0)
        (0.85351274 0.00000000 0)
        (0.86525112 0.00000000 0)
        (0.87702150 0.00000000 0)
        (0.88882437 0.00000000 0)
        (0.90066026 0.00000000 0)
        (0.91252967 0.00000000 0)
        (0.92443312 0.00000000 0)
        (0.93637115 0.00000000 0)
        (0.94834427 0.00000000 0)
        (0.96035302 0.00000000 0)
        (0.97239794 0.00000000 0)
        (0.98447956 0.00000000 0)
        (0.99659843 0.00000000 0)
        (1.00875511 0.00000000 0)
        (1.02095014 0.00000000 0)
        (1.03318409 0.00000000 0)
        (1.04545751 0.00000000 0)
        (1.05777099 0.00000000 0)
        (1.07012508 0.00000000 0)
        (1.08252038 0.00000000 0)
        (1.09495746 0.00000000 0)
        (1.10743692 0.00000000 0)
        (1.11995934 0.00000000 0)
        (1.13252532 0.00000000 0)
        (1.14513548 0.00000000 0)
        (1.15779042 0.00000000 0)
        (1.17049075 0.00000000 0)
        (1.18323709 0.00000000 0)
        (1.19603008 0.00000000 0)
        (1.20887033 0.00000000 0)
        (1.22175850 0.00000000 0)
        (1.23469521 0.00000000 0)
        (1.24768113 0.00000000 0)
        (1.26071689 0.00000000 0)
        (1.27380317 0.00000000 0)
        (1.28694062 0.00000000 0)
        (1.30012992 0.00000000 0)
        (1.31337175 0.00000000 0)
        (1.32666678 0.00000000 0)
        (1.34001571 0.00000000 0)
        (1.35341924 0.00000000 0)
        (1.36687805 0.00000000 0)
        (1.38039287 0.00000000 0)
        (1.39396440 0.00000000 0)
        (1.40759336 0.00000000 0)
        (1.42128048 0.00000000 0)
        (1.43502650 0.00000000 0)
        (1.44883214 0.00000000 0)
        (1.46269816 0.00000000 0)
        (1.47662531 0.00000000 0)
        (1.49061433 0.00000000 0)
        (1.50466601 0.00000000 0)
        (1.51878111 0.00000000 0)
        (1.53296040 0.00000000 0)
        (1.54720466 0.00000000 0)
        (1.56151470 0.00000000 0)
        (1.57589130 0.00000000 0)
        (1.59033527 0.00000000 0)
        (1.60484742 0.00000000 0)
        (1.61942856 0.00000000 0)
        (1.63407952 0.00000000 0)
        (1.64880112 0.00000000 0)
        (1.66359420 0.00000000 0)
        (1.67845960 0.00000000 0)
        (1.69339817 0.00000000 0)
        (1.70841077 0.00000000 0)
        (1.72349825 0.00000000 0)
        (1.73866149 0.00000000 0)
        (1.75390135 0.00000000 0)
        (1.76921872 0.00000000 0)
        (1.78461448 0.00000000 0)
        (1.80008953 0.00000000 0)
        (1.81564477 0.00000000 0)
        (1.83128109 0.00000000 0)
        (1.84699941 0.00000000 0)
        (1.86280065 0.00000000 0)
        (1.87868573 0.00000000 0)
        (1.89465557 0.00000000 0)
        (1.91071112 0.00000000 0)
        (1.92685330 0.00000000 0)
        (1.94308307 0.00000000 0)
        (1.95940137 0.00000000 0)
        (1.97580917 0.00000000 0)
        (1.99230741 0.00000000 0)
        (2.00889707 0.00000000 0)
        (2.02557911 0.00000000 0)
        (2.04235451 0.00000000 0)
        (2.05922426 0.00000000 0)
        (2.07618932 0.00000000 0)
        (2.09325069 0.00000000 0)
        (2.11040936 0.00000000 0)
        (2.12766633 0.00000000 0)
        (2.14502259 0.00000000 0)
        (2.16247915 0.00000000 0)
        (2.18003701 0.00000000 0)
        (2.19769718 0.00000000 0)
        (2.21546067 0.00000000 0)
        (2.23332849 0.00000000 0)
        (2.25130165 0.00000000 0)
        (2.26938118 0.00000000 0)
        (2.28756809 0.00000000 0)
        (2.30586340 0.00000000 0)
        (2.32426813 0.00000000 0)
        (2.34278331 0.00000000 0)
        (2.36140994 0.00000000 0)
        (2.38014907 0.00000000 0)
        (2.39900169 0.00000000 0)
        (2.41796885 0.00000000 0)
        (2.43705155 0.00000000 0)
        (2.45625082 0.00000000 0)
        (2.47556766 0.00000000 0)
        (2.49500310 0.00000000 0)
        (2.51455815 0.00000000 0)
        (2.53423381 0.00000000 0)
        (2.55403109 0.00000000 0)
        (2.57395099 0.00000000 0)
        (2.59399451 0.00000000 0)
        (2.61416264 0.00000000 0)
        (2.63445636 0.00000000 0)
        (2.65487667 0.00000000 0)
        (2.67542454 0.00000000 0)
        (2.69610093 0.00000000 0)
        (2.71690682 0.00000000 0)
    );

    frequencyAxis
    {
        discretisation      equidistantFrequencyAxis;
        lowerFrequencyCutoff 0.00390637;
        upperFrequencyCutoff 0.78127384;
        writeSpectrum       false;
    }
}

outletCoeffs
{
    waveType            potentialCurrent;
    U                   ( 0 0 0 );
    Tsoft               0;

    relaxationZone
    {
        relaxationScheme    Spatial;
        relaxationShape     Rectangular;
        beachType           Empty;
        relaxType           OUTLET;
        startX              ( 20.65 -999 999 );
        endX                ( 22.65 999 999 );
        orientation         ( 1 0 0 );
    }
}
