/*--------------------------------*- C++ -*----------------------------------*\
| =========                 |                                                 |
| \\      /  F ield         | OpenFOAM Extend Project: Open Source CFD        |
|  \\    /   O peration     | Version:  1.6-ext                               |
|   \\  /    A nd           | Web:      www.extend-project.de                 |
|    \\/     M anipulation  |                                                 |
\*---------------------------------------------------------------------------*/
FoamFile
{
    version     2.0;
    format      ascii;
    class       dictionary;
    location    "constant";
    object      turbulenceProperties;
}

simulationType RAS;

RAS
{
    RASModel            kEpsilon;

    turbulence          on;

    printCoeffs         on;

    kEpsilonCoeffs
    {
        Cmu         0.09;
        C1          1.44;
        C2          1.92;
        sigmaEps    1.44
    }
}
