/*--------------------------------*- C++ -*----------------------------------*\
| =========                 |                                                 |
| \      /  F ield         | OpenFOAM: The Open Source CFD Toolbox           |
|  \    /   O peration     | Version:  2.2.1                                 |
|   \  /    A nd           | Web:      www.OpenFOAM.org                      |
|    \/     M anipulation  |                                                 |
\*---------------------------------------------------------------------------*/
FoamFile
{
    version	2.0;
    format	ascii;
    class	dictionary;
    object	waveProperties;
}
// * * * * * * * * * * * * * * * * * * * * * * * * * * * * * * * * * * * * * //

seaLevel            0.00000;

relaxationNames     ( outlet );

initializationName  outlet;

pName               p_rgh;

inletCoeffs
{
    waveType            irregular;
    spectrum            JONSWAP;
    N                   200;
    Tsoft               0.00000;
    writeSpectrum       false;
    Hs                  1.00000;
    Tp                  1.70000;
    gamma               1.00000;
    depth               0.55000;
    direction           (1 0 0);
    amplitude           nonuniform List<scalar>
    200
    (
        0.0009471748
        0.0009466602
        0.0009458032
        0.0009446048
        0.0009430662
        0.0009411892
        0.0009389758
        0.0009364285
        0.0009335500
        0.0009303436
        0.0009268128
        0.0009229613
        0.0009187935
        0.0009143138
        0.0009095271
        0.0009044385
        0.0008990535
        0.0008933779
        0.0008874178
        0.0008811793
        0.0008746692
        0.0008678943
        0.0008608616
        0.0008535784
        0.0008460522
        0.0008382908
        0.0008303020
        0.0008220939
        0.0008136747
        0.0008050528
        0.0007962368
        0.0007872352
        0.0007780568
        0.0007687103
        0.0007592048
        0.0007495490
        0.0007397522
        0.0007298232
        0.0007197711
        0.0007096050
        0.0006993340
        0.0006889671
        0.0006785133
        0.0006679815
        0.0006573807
        0.0006467196
        0.0006360071
        0.0006252517
        0.0006144620
        0.0006036464
        0.0005928133
        0.0005819708
        0.0005711269
        0.0005602895
        0.0005494663
        0.0005386648
        0.0005278924
        0.0005171562
        0.0005064633
        0.0004958203
        0.0004852339
        0.0004747105
        0.0004642561
        0.0004538767
        0.0004435780
        0.0004333656
        0.0004232446
        0.0004132201
        0.0004032969
        0.0003934796
        0.0003837724
        0.0003741796
        0.0003647049
        0.0003553520
        0.0003461243
        0.0003370250
        0.0003280570
        0.0003192231
        0.0003105256
        0.0003019670
        0.0002935493
        0.0002852742
        0.0002771435
        0.0002691586
        0.0002613206
        0.0002536307
        0.0002460896
        0.0002386980
        0.0002314564
        0.0002243650
        0.0002174239
        0.0002106332
        0.0002039925
        0.0001975016
        0.0001911598
        0.0001849665
        0.0001789210
        0.0001730223
        0.0001672694
        0.0001616610
        0.0001561959
        0.0001508726
        0.0001456898
        0.0001406458
        0.0001357389
        0.0001309673
        0.0001263293
        0.0001218229
        0.0001174461
        0.0001131969
        0.0001090733
        0.0001050730
        0.0001011938
        0.0000974336
        0.0000937901
        0.0000902611
        0.0000868440
        0.0000835368
        0.0000803369
        0.0000772420
        0.0000742498
        0.0000713579
        0.0000685639
        0.0000658653
        0.0000632599
        0.0000607453
        0.0000583191
        0.0000559790
        0.0000537227
        0.0000515478
        0.0000494521
        0.0000474334
        0.0000454893
        0.0000436178
        0.0000418166
        0.0000400837
        0.0000384168
        0.0000368140
        0.0000352732
        0.0000337923
        0.0000323696
        0.0000310030
        0.0000296906
        0.0000284307
        0.0000272214
        0.0000260610
        0.0000249477
        0.0000238799
        0.0000228560
        0.0000218743
        0.0000209333
        0.0000200315
        0.0000191675
        0.0000183398
        0.0000175470
        0.0000167878
        0.0000160609
        0.0000153651
        0.0000146990
        0.0000140616
        0.0000134516
        0.0000128681
        0.0000123098
        0.0000117758
        0.0000112651
        0.0000107767
        0.0000103097
        0.0000098631
        0.0000094362
        0.0000090280
        0.0000086379
        0.0000082649
        0.0000079084
        0.0000075677
        0.0000072421
        0.0000069308
        0.0000066334
        0.0000063491
        0.0000060774
        0.0000058177
        0.0000055696
        0.0000053324
        0.0000051058
        0.0000048891
        0.0000046820
        0.0000044841
        0.0000042949
        0.0000041140
        0.0000039411
        0.0000037758
        0.0000036177
        0.0000034666
        0.0000033220
        0.0000031838
        0.0000030516
        0.0000029251
        0.0000028042
        0.0000026884
        0.0000025777
        0.0000024717
    );
    frequency           nonuniform List<scalar>
    200
    (
        0.00390637
        0.00781274
        0.01171911
        0.01562548
        0.01953185
        0.02343822
        0.02734458
        0.03125095
        0.03515732
        0.03906369
        0.04297006
        0.04687643
        0.05078280
        0.05468917
        0.05859554
        0.06250191
        0.06640828
        0.07031465
        0.07422102
        0.07812738
        0.08203375
        0.08594012
        0.08984649
        0.09375286
        0.09765923
        0.10156560
        0.10547197
        0.10937834
        0.11328471
        0.11719108
        0.12109745
        0.12500381
        0.12891018
        0.13281655
        0.13672292
        0.14062929
        0.14453566
        0.14844203
        0.15234840
        0.15625477
        0.16016114
        0.16406751
        0.16797388
        0.17188025
        0.17578661
        0.17969298
        0.18359935
        0.18750572
        0.19141209
        0.19531846
        0.19922483
        0.20313120
        0.20703757
        0.21094394
        0.21485031
        0.21875668
        0.22266305
        0.22656941
        0.23047578
        0.23438215
        0.23828852
        0.24219489
        0.24610126
        0.25000763
        0.25391400
        0.25782037
        0.26172674
        0.26563311
        0.26953948
        0.27344584
        0.27735221
        0.28125858
        0.28516495
        0.28907132
        0.29297769
        0.29688406
        0.30079043
        0.30469680
        0.30860317
        0.31250954
        0.31641591
        0.32032228
        0.32422864
        0.32813501
        0.33204138
        0.33594775
        0.33985412
        0.34376049
        0.34766686
        0.35157323
        0.35547960
        0.35938597
        0.36329234
        0.36719871
        0.37110508
        0.37501144
        0.37891781
        0.38282418
        0.38673055
        0.39063692
        0.39454329
        0.39844966
        0.40235603
        0.40626240
        0.41016877
        0.41407514
        0.41798151
        0.42188787
        0.42579424
        0.42970061
        0.43360698
        0.43751335
        0.44141972
        0.44532609
        0.44923246
        0.45313883
        0.45704520
        0.46095157
        0.46485794
        0.46876431
        0.47267067
        0.47657704
        0.48048341
        0.48438978
        0.48829615
        0.49220252
        0.49610889
        0.50001526
        0.50392163
        0.50782800
        0.51173437
        0.51564074
        0.51954711
        0.52345347
        0.52735984
        0.53126621
        0.53517258
        0.53907895
        0.54298532
        0.54689169
        0.55079806
        0.55470443
        0.55861080
        0.56251717
        0.56642354
        0.57032991
        0.57423627
        0.57814264
        0.58204901
        0.58595538
        0.58986175
        0.59376812
        0.59767449
        0.60158086
        0.60548723
        0.60939360
        0.61329997
        0.61720634
        0.62111270
        0.62501907
        0.62892544
        0.63283181
        0.63673818
        0.64064455
        0.64455092
        0.64845729
        0.65236366
        0.65627003
        0.66017640
        0.66408277
        0.66798914
        0.67189550
        0.67580187
        0.67970824
        0.68361461
        0.68752098
        0.69142735
        0.69533372
        0.69924009
        0.70314646
        0.70705283
        0.71095920
        0.71486557
        0.71877194
        0.72267830
        0.72658467
        0.73049104
        0.73439741
        0.73830378
        0.74221015
        0.74611652
        0.75002289
        0.75392926
        0.75783563
        0.76174200
        0.76564837
        0.76955473
        0.77346110
        0.77736747
        0.78127384
    );
    phaselag           nonuniform List<scalar>
    200
    (
        -3.14159265
        0.00000000
        3.14159265
        0.00000000
        3.14159265
        -0.00000000
        3.14159265
        0.00000000
        3.14159265
        -0.00000000
        3.14159265
        0.00000000
        -3.14159265
        0.00000000
        -3.14159265
        0.00000000
        3.14159265
        -0.00000000
        -3.14159265
        -0.00000000
        3.14159265
        -0.00000000
        3.14159265
        0.00000000
        -3.14159265
        0.00000000
        3.14159265
        -0.00000000
        -3.14159265
        -0.00000000
        -3.14159265
        -0.00000000
        3.14159265
        -0.00000000
        3.14159265
        -0.00000000
        3.14159265
        -0.00000000
        -3.14159265
        -0.00000000
        3.14159265
        -0.00000000
        -3.14159265
        -0.00000000
        -3.14159265
        0.00000000
        -3.14159265
        0.00000000
        3.14159265
        -0.00000000
        -3.14159265
        -0.00000000
        -3.14159265
        0.00000000
        -3.14159265
        0.00000000
        -3.14159265
        0.00000000
        -3.14159265
        0.00000000
        -3.14159265
        0.00000000
        3.14159265
        0.00000000
        -3.14159265
        0.00000000
        -3.14159265
        0.00000000
        3.14159265
        0.00000000
        -3.14159265
        0.00000000
        -3.14159265
        0.00000000
        -3.14159265
        0.00000000
        -3.14159265
        0.00000000
        -3.14159265
        0.00000000
        -3.14159265
        0.00000000
        3.14159265
        0.00000000
        3.14159265
        -0.00000000
        3.14159265
        0.00000000
        3.14159265
        -0.00000000
        -3.14159265
        -0.00000000
        3.14159265
        -0.00000000
        3.14159265
        -0.00000000
        3.14159265
        -0.00000000
        -3.14159265
        -0.00000000
        3.14159265
        0.00000000
        3.14159265
        -0.00000000
        3.14159265
        0.00000000
        -3.14159265
        -0.00000000
        3.14159265
        0.00000000
        -3.14159265
        -0.00000000
        -3.14159265
        0.00000000
        -3.14159265
        0.00000000
        -3.14159265
        0.00000000
        -3.14159265
        -0.00000000
        -3.14159265
        -0.00000000
        -3.14159265
        -0.00000000
        3.14159265
        -0.00000000
        3.14159265
        -0.00000000
        -3.14159265
        0.00000000
        -3.14159265
        0.00000000
        -3.14159265
        0.00000000
        -3.14159265
        -0.00000000
        3.14159265
        0.00000000
        3.14159265
        0.00000000
        -3.14159265
        0.00000000
        -3.14159265
        0.00000000
        -3.14159265
        0.00000000
        -3.14159265
        0.00000000
        -3.14159265
        0.00000000
        -3.14159265
        0.00000000
        -3.14159265
        0.00000000
        -3.14159265
        0.00000000
        -3.14159265
        0.00000000
        -3.14159265
        0.00000000
        -3.14159265
        0.00000000
        -3.14159265
        0.00000000
        -3.14159265
        0.00000000
        -3.14159265
        0.00000000
        -3.14159265
        0.00000000
        -3.14159265
        0.00000000
        -3.14159265
        0.00000000
        -3.14159265
        0.00000000
        -3.14159265
        0.00000000
        -3.14159265
        0.00000000
        -3.14159265
        0.00000000
        -3.14159265
        0.00000000
        -3.14159265
        0.00000000
        -3.14159265
        0.00000000
        -3.14159265
        0.00000000
        -3.14159265
        0.00000000
        -3.14159265
        0.00000000
        3.14159265
        0.00000000
        3.14159265
        -0.00000000
        3.14159265
        -0.00000000
    );
    waveNumber           nonuniform List<vector>
    200
    (
        (0.01056671 0.00000000 0)
        (0.02113378 0.00000000 0)
        (0.03170156 0.00000000 0)
        (0.04227041 0.00000000 0)
        (0.05284068 0.00000000 0)
        (0.06341275 0.00000000 0)
        (0.07398696 0.00000000 0)
        (0.08456366 0.00000000 0)
        (0.09514323 0.00000000 0)
        (0.10572602 0.00000000 0)
        (0.11631238 0.00000000 0)
        (0.12690267 0.00000000 0)
        (0.13749726 0.00000000 0)
        (0.14809651 0.00000000 0)
        (0.15870078 0.00000000 0)
        (0.16931042 0.00000000 0)
        (0.17992580 0.00000000 0)
        (0.19054729 0.00000000 0)
        (0.20117524 0.00000000 0)
        (0.21181003 0.00000000 0)
        (0.22245201 0.00000000 0)
        (0.23310156 0.00000000 0)
        (0.24375904 0.00000000 0)
        (0.25442481 0.00000000 0)
        (0.26509925 0.00000000 0)
        (0.27578274 0.00000000 0)
        (0.28647563 0.00000000 0)
        (0.29717830 0.00000000 0)
        (0.30789113 0.00000000 0)
        (0.31861449 0.00000000 0)
        (0.32934875 0.00000000 0)
        (0.34009430 0.00000000 0)
        (0.35085152 0.00000000 0)
        (0.36162078 0.00000000 0)
        (0.37240246 0.00000000 0)
        (0.38319696 0.00000000 0)
        (0.39400465 0.00000000 0)
        (0.40482593 0.00000000 0)
        (0.41566117 0.00000000 0)
        (0.42651078 0.00000000 0)
        (0.43737514 0.00000000 0)
        (0.44825464 0.00000000 0)
        (0.45914969 0.00000000 0)
        (0.47006068 0.00000000 0)
        (0.48098801 0.00000000 0)
        (0.49193208 0.00000000 0)
        (0.50289330 0.00000000 0)
        (0.51387207 0.00000000 0)
        (0.52486880 0.00000000 0)
        (0.53588390 0.00000000 0)
        (0.54691779 0.00000000 0)
        (0.55797087 0.00000000 0)
        (0.56904356 0.00000000 0)
        (0.58013630 0.00000000 0)
        (0.59124949 0.00000000 0)
        (0.60238356 0.00000000 0)
        (0.61353895 0.00000000 0)
        (0.62471608 0.00000000 0)
        (0.63591538 0.00000000 0)
        (0.64713729 0.00000000 0)
        (0.65838224 0.00000000 0)
        (0.66965069 0.00000000 0)
        (0.68094308 0.00000000 0)
        (0.69225984 0.00000000 0)
        (0.70360144 0.00000000 0)
        (0.71496832 0.00000000 0)
        (0.72636094 0.00000000 0)
        (0.73777977 0.00000000 0)
        (0.74922526 0.00000000 0)
        (0.76069788 0.00000000 0)
        (0.77219810 0.00000000 0)
        (0.78372640 0.00000000 0)
        (0.79528326 0.00000000 0)
        (0.80686914 0.00000000 0)
        (0.81848454 0.00000000 0)
        (0.83012995 0.00000000 0)
        (0.84180585 0.00000000 0)
        (0.85351274 0.00000000 0)
        (0.86525112 0.00000000 0)
        (0.87702150 0.00000000 0)
        (0.88882437 0.00000000 0)
        (0.90066026 0.00000000 0)
        (0.91252967 0.00000000 0)
        (0.92443312 0.00000000 0)
        (0.93637115 0.00000000 0)
        (0.94834427 0.00000000 0)
        (0.96035302 0.00000000 0)
        (0.97239794 0.00000000 0)
        (0.98447956 0.00000000 0)
        (0.99659843 0.00000000 0)
        (1.00875511 0.00000000 0)
        (1.02095014 0.00000000 0)
        (1.03318409 0.00000000 0)
        (1.04545751 0.00000000 0)
        (1.05777099 0.00000000 0)
        (1.07012508 0.00000000 0)
        (1.08252038 0.00000000 0)
        (1.09495746 0.00000000 0)
        (1.10743692 0.00000000 0)
        (1.11995934 0.00000000 0)
        (1.13252532 0.00000000 0)
        (1.14513548 0.00000000 0)
        (1.15779042 0.00000000 0)
        (1.17049075 0.00000000 0)
        (1.18323709 0.00000000 0)
        (1.19603008 0.00000000 0)
        (1.20887033 0.00000000 0)
        (1.22175850 0.00000000 0)
        (1.23469521 0.00000000 0)
        (1.24768113 0.00000000 0)
        (1.26071689 0.00000000 0)
        (1.27380317 0.00000000 0)
        (1.28694062 0.00000000 0)
        (1.30012992 0.00000000 0)
        (1.31337175 0.00000000 0)
        (1.32666678 0.00000000 0)
        (1.34001571 0.00000000 0)
        (1.35341924 0.00000000 0)
        (1.36687805 0.00000000 0)
        (1.38039287 0.00000000 0)
        (1.39396440 0.00000000 0)
        (1.40759336 0.00000000 0)
        (1.42128048 0.00000000 0)
        (1.43502650 0.00000000 0)
        (1.44883214 0.00000000 0)
        (1.46269816 0.00000000 0)
        (1.47662531 0.00000000 0)
        (1.49061433 0.00000000 0)
        (1.50466601 0.00000000 0)
        (1.51878111 0.00000000 0)
        (1.53296040 0.00000000 0)
        (1.54720466 0.00000000 0)
        (1.56151470 0.00000000 0)
        (1.57589130 0.00000000 0)
        (1.59033527 0.00000000 0)
        (1.60484742 0.00000000 0)
        (1.61942856 0.00000000 0)
        (1.63407952 0.00000000 0)
        (1.64880112 0.00000000 0)
        (1.66359420 0.00000000 0)
        (1.67845960 0.00000000 0)
        (1.69339817 0.00000000 0)
        (1.70841077 0.00000000 0)
        (1.72349825 0.00000000 0)
        (1.73866149 0.00000000 0)
        (1.75390135 0.00000000 0)
        (1.76921872 0.00000000 0)
        (1.78461448 0.00000000 0)
        (1.80008953 0.00000000 0)
        (1.81564477 0.00000000 0)
        (1.83128109 0.00000000 0)
        (1.84699941 0.00000000 0)
        (1.86280065 0.00000000 0)
        (1.87868573 0.00000000 0)
        (1.89465557 0.00000000 0)
        (1.91071112 0.00000000 0)
        (1.92685330 0.00000000 0)
        (1.94308307 0.00000000 0)
        (1.95940137 0.00000000 0)
        (1.97580917 0.00000000 0)
        (1.99230741 0.00000000 0)
        (2.00889707 0.00000000 0)
        (2.02557911 0.00000000 0)
        (2.04235451 0.00000000 0)
        (2.05922426 0.00000000 0)
        (2.07618932 0.00000000 0)
        (2.09325069 0.00000000 0)
        (2.11040936 0.00000000 0)
        (2.12766633 0.00000000 0)
        (2.14502259 0.00000000 0)
        (2.16247915 0.00000000 0)
        (2.18003701 0.00000000 0)
        (2.19769718 0.00000000 0)
        (2.21546067 0.00000000 0)
        (2.23332849 0.00000000 0)
        (2.25130165 0.00000000 0)
        (2.26938118 0.00000000 0)
        (2.28756809 0.00000000 0)
        (2.30586340 0.00000000 0)
        (2.32426813 0.00000000 0)
        (2.34278331 0.00000000 0)
        (2.36140994 0.00000000 0)
        (2.38014907 0.00000000 0)
        (2.39900169 0.00000000 0)
        (2.41796885 0.00000000 0)
        (2.43705155 0.00000000 0)
        (2.45625082 0.00000000 0)
        (2.47556766 0.00000000 0)
        (2.49500310 0.00000000 0)
        (2.51455815 0.00000000 0)
        (2.53423381 0.00000000 0)
        (2.55403109 0.00000000 0)
        (2.57395099 0.00000000 0)
        (2.59399451 0.00000000 0)
        (2.61416264 0.00000000 0)
        (2.63445636 0.00000000 0)
        (2.65487667 0.00000000 0)
        (2.67542454 0.00000000 0)
        (2.69610093 0.00000000 0)
        (2.71690682 0.00000000 0)
    );

    frequencyAxis
    {
        discretisation      equidistantFrequencyAxis;
        lowerFrequencyCutoff 0.00390637;
        upperFrequencyCutoff 0.78127384;
        writeSpectrum       false;
    }
}

outletCoeffs
{
    waveType            potentialCurrent;
    U                   ( 0 0 0 );
    Tsoft               0;

    relaxationZone
    {
        relaxationScheme    Spatial;
        relaxationShape     Rectangular;
        beachType           Empty;
        relaxType           OUTLET;
        startX              ( 20.65 -999 999 );
        endX                ( 22.65 999 999 );
        orientation         ( 1 0 0 );
    }
}
